$ NASTRAN input file created by the Patran 2012.2 64-Bit input file
$ translator on November  06, 2017 at 15:37:03.
$ Direct Text Input for Nastran System Cell Section
$ Direct Text Input for File Management Section
$ Direct Text Input for Executive Control
$ Steady State Analysis, Database
SOL 153
CEND
$ Direct Text Input for Global Case Control Data
ANALYSIS = HEAT
TITLE = MSC.Nastran job created on 18-Jul-06 at 15:47:44
ECHO = NONE
TEMPERATURE(INITIAL) = 1
SUBCASE 1
$ Subcase name : Default
   SUBTITLE=Default
   NLPARM = 1
   SPC = 1
   THERMAL(SORT1,PRINT)=ALL
   FLUX(SORT1,PRINT)=ALL
BEGIN BULK
$ Direct Text Input for Bulk Data
PARAM    POST    -1
PARAM    AUTOSPC YES
PARAM    SIGMA  1.714-9
NLPARM   1       0               AUTO    5       25      PW      NO
                .001    1.-7

$ Elements and Element Properties for region : Fin
PSHELL   1       1      .001
$
CQUAD4   1       1       1       2       7       6
CQUAD4   2       1       2       3       8       7
CQUAD4   3       1       3       4       9       8
CQUAD4   4       1       4       5       10      9
$
MAT4     1      385.
$ 
GRID     1               0.      0.      0.
GRID     2              .025     0.      0.
GRID     3              .05      0.      0.
GRID     4              .075     0.      0.
GRID     5              .1       0.      0.
GRID     6               0.     .005     0.
GRID     7              .025    .005     0.
GRID     8              .05     .005     0.
GRID     9              .075    .005     0.
GRID     10             .1      .005     0.
$ Loads for Load Case : Default
$ Fixed Temperatures of Load Set : top_convection
SPC      1       11      1      20.
$ Fixed Temperatures of Load Set : bottom_convection
SPC      1       12      1      20.
$ Fixed Temperatures of Load Set : edge_convection
SPC      1       13      1      20.
$ Fixed Temperatures of Load Set : engine_temperature
SPC      1       1       1      100.     6       1      100.
$ Convection to Ambient of Load Set : top_convection
PCONV    1       1001    0       0.
CONV     100001  1       0       0       11
CONV     100002  1       0       0       11
CONV     100003  1       0       0       11
CONV     100004  1       0       0       11
$ Convection to Ambient of Load Set : bottom_convection
CONV     100001  1       0       0       12
CONV     100002  1       0       0       12
CONV     100003  1       0       0       12
CONV     100004  1       0       0       12
$ Convection to Ambient of Load Set : edge_convection
CONV     100005  1       0       0       13
$ Initial Temperatures from Temperature Load Sets
TEMP     1       1      100.     6      100.     11     25.
TEMP     1       12     20.      13     20.
$ Default Initial Temperature
TEMPD    1       0.
$ CHBDYG Surface Elements
CHBDYG   100001          AREA4
         1       2       7       6
CHBDYG   100002          AREA4
         2       3       8       7
CHBDYG   100003          AREA4
         3       4       9       8
CHBDYG   100004          AREA4
         4       5       10      9
$ CHBDYP Surface Elements and Element Properties
CHBDYP   100005  1       LINE                    5       10
                                        1.       0.      0.
PHBDY    1      .002
$ Free Convection Heat Transfer Coefficients
MAT4     1001                           25.
$ Scalar Points
SPOINT   11      THRU    13
$ Referenced Coordinate Frames
ENDDATA 850eec47
